*Heading
** Job name: U_elastic_mesh_only Model name: Model-1
** Generated by: Abaqus/CAE 2018
*Preprint, echo=NO, model=NO, history=NO, contact=NO
** ----------------------------------------------------------------
** 
** PART INSTANCE: U_elastic
** 
*Node
      1,          20.,          20.,           0.
      2,          30.,          20.,           0.
      3,          26.,          25.,           0.
      4,          30.,          25.,           0.
      5,          20.,          25.,           0.
      6,          26.,          45.,           0.
      7,          20.,          45.,           0.
      8,          30.,          45.,           0.
      9,          30.,          50.,           0.
     10,          20.,          50.,           0.
     11,          30.,          20.,         -10.
     12,          30.,          50.,         -10.
     13,          20.,          50.,         -10.
     14,          20.,          20.,         -10.
     15,         -20.,          20.,         -10.
     16,         -30.,          20.,         -10.
     17,         -30.,          20.,           0.
     18,         -20.,          20.,           0.
     19,         -20.,          50.,         -10.
     20,         -30.,          50.,         -10.
** ... 5878 like lines cut
*Element, type=C3D8
  1,  173, 1138, 3463, 1018,    1,   79,  915,   89
  2, 1138, 1139, 3464, 3463,   79,   80,  916,  915
  3, 1139, 1140, 3465, 3464,   80,   81,  917,  916
  4, 1140, 1141, 3466, 3465,   81,   82,  918,  917
  5, 1141,  178, 1078, 3466,   82,    2,   83,  918
  6, 1018, 3463, 3467, 1019,   89,  915,  919,   88
  7, 3463, 3464, 3468, 3467,  915,  916,  920,  919
  8, 3464, 3465, 3469, 3468,  916,  917,  921,  920
  9, 3465, 3466, 3470, 3469,  917,  918,  922,  921
 10, 3466, 1078, 1079, 3470,  918,   83,   84,  922
 11, 1019, 3467, 3471, 1020,   88,  919,   86,    5
 12, 3467, 3468, 3472, 3471,  919,  920,   85,   86
 13, 3468, 3469, 3473, 3472,  920,  921,    3,   85
 14, 3469, 3470, 3474, 3473,  921,  922,   87,    3
 15, 3470, 1079, 1080, 3474,  922,   84,    4,   87
 16, 1020, 3471, 3475, 1021,    5,   86,  932,  109
 17, 3471, 3472, 3476, 3475,   86,   85,  923,  932
 18, 3472, 3473, 3477, 3476,   85,    3,   90,  923
 19, 3473, 3474, 3478, 3477,    3,   87,  949,   90
 20, 3474, 1080, 1081, 3478,   87,    4,  110,  949
** ... 4300 like lines cut
*System
*Nset, nset=all, generate
    1,  5898,     1
*Elset, elset=all, generate
    1,  4320,     1
*Nset, nset=left
  44,  45,  56,  58, 641, 642, 643, 735, 736, 737, 738
*Elset, elset=left
 3260, 3265, 3270, 3275, 3526, 3546, 3566, 3586, 3606, 3687, 3688, 3689, 3690, 4221, 4241, 4261
 4281, 4301
*Nset, nset=left_lower_datum
  25,  27, 272
*Elset, elset=left_lower_datum
  474,  475,  499,  500, 2946, 2947, 2951, 2952
*Nset, nset=left_upper_datum
  26,  28, 284
*Elset, elset=left_upper_datum
  724,  725,  749,  750, 2996, 2997, 3001, 3002
*Nset, nset=midplane_xy
    9,   10,   21,   22,   29,   30,  122,  123,  124,  125,  206,  207,  208,  209,  323,  324
  325,  326,  327,  328,  329,  330,  331,  332,  333,  334,  335,  336,  337,  338,  339,  340
  341,  342,  343,  344,  345,  346,  347,  348,  349,  350,  351,  352,  353,  354,  355,  356
  357,  358,  359,  398,  399,  400,  401,  402,  403,  404,  405,  406,  407,  408,  409,  410
  411,  412,  413,  414,  415,  416,  417,  418,  419,  420,  421,  422,  423,  424,  425,  426
  427,  428,  429,  430,  431,  432,  433,  434,  435,  436,  437,  438, 1729, 1730, 1731, 1732
 1733, 1734, 1735, 1736, 1737, 1738, 1739, 1740, 1741, 1742, 1743, 1744, 1745, 1746, 1747, 1748
 1749, 1750, 1751, 1752, 1753, 1754, 1755, 1756, 1757, 1758, 1759, 1760, 1761, 1762, 1763, 1764
 1765, 1766, 1767, 1768, 1769, 1770, 1771, 1772, 1773, 1774, 1775, 1776, 1777, 1778, 1779, 1780
 1781, 1782, 1783, 1784, 1785, 1786, 1787, 1788, 1789, 1790, 1791, 1792, 1793, 1794, 1795, 1796
 1797, 1798, 1799, 1800, 1801, 1802, 1803, 1804, 1805, 1806, 1807, 1808, 1809, 1810, 1811, 1812
 1813, 1814, 1815, 1816, 1817, 1818, 1819, 1820, 1821, 1822, 1823, 1824, 1825, 1826, 1827, 1828
 1829, 1830, 1831, 1832, 1833, 1834, 1835, 1836, 1837, 1838, 1839, 1840, 1841, 1842, 1843, 1844
 1845, 1846, 1847, 1848, 1849, 1850, 1851, 1852, 1853, 1854, 1855, 1856, 1857, 1858, 1859, 1860
 1861, 1862, 1863, 1864, 1865, 1866, 1867, 1868, 1869, 1870, 1871, 1872, 1873, 1874, 1875, 1876
*Elset, elset=midplane_xy
  801,  802,  803,  804,  805,  826,  827,  828,  829,  830,  851,  852,  853,  854,  855,  876
  877,  878,  879,  880,  901,  902,  903,  904,  905,  926,  927,  928,  929,  930,  951,  952
  953,  954,  955,  976,  977,  978,  979,  980, 1001, 1002, 1003, 1004, 1005, 1026, 1027, 1028
 1029, 1030, 1051, 1052, 1053, 1054, 1055, 1076, 1077, 1078, 1079, 1080, 1101, 1102, 1103, 1104
 1105, 1126, 1127, 1128, 1129, 1130, 1151, 1152, 1153, 1154, 1155, 1176, 1177, 1178, 1179, 1180
 1201, 1202, 1203, 1204, 1205, 1226, 1227, 1228, 1229, 1230, 1251, 1252, 1253, 1254, 1255, 1276
 1277, 1278, 1279, 1280, 1301, 1302, 1303, 1304, 1305, 1326, 1327, 1328, 1329, 1330, 1351, 1352
 1353, 1354, 1355, 1376, 1377, 1378, 1379, 1380, 1401, 1402, 1403, 1404, 1405, 1426, 1427, 1428
 1429, 1430, 1451, 1452, 1453, 1454, 1455, 1476, 1477, 1478, 1479, 1480, 1501, 1502, 1503, 1504
 1505, 1526, 1527, 1528, 1529, 1530, 1551, 1552, 1553, 1554, 1555, 1576, 1577, 1578, 1579, 1580
 1601, 1602, 1603, 1604, 1605, 1626, 1627, 1628, 1629, 1630, 1651, 1652, 1653, 1654, 1655, 1676
 1677, 1678, 1679, 1680, 1701, 1702, 1703, 1704, 1705, 1726, 1727, 1728, 1729, 1730, 1751, 1752
 1753, 1754, 1755, 1776, 1777, 1778, 1779, 1780, 1781, 1782, 1783, 1784, 1785, 1786, 1787, 1788
 1789, 1790, 1791, 1792, 1793, 1794, 1795, 1796, 1797, 1798, 1799, 1800, 1801, 1802, 1803, 1804
 1805, 1806, 1807, 1808, 1809, 1810, 1811, 1812, 1813, 1814, 1932, 1933, 1934, 1935, 1936, 1937
 1938, 1939, 1940, 1941, 1942, 1943, 1944, 1945, 1946, 1947, 1948, 1949, 1950, 1951, 1952, 1953
 1954, 1955, 1956, 1957, 1958, 1959, 1960, 1961, 1962, 1963, 1964, 1965, 1966, 1967, 1968, 1969
 1970, 2088, 2089, 2090, 2091, 2092, 2093, 2094, 2095, 2096, 2097, 2098, 2099, 2100, 2101, 2102
 2103, 2104, 2105, 2106, 2107, 2108, 2109, 2110, 2111, 2112, 2113, 2114, 2115, 2116, 2117, 2118
 2119, 2120, 2121, 2122, 2123, 2124, 2125, 2126, 2244, 2245, 2246, 2247, 2248, 2249, 2250, 2251
** ... 5 like lines cut
*Nset, nset=right
  38,  39,  47,  48, 579, 580, 581, 666, 667, 668, 669
*Elset, elset=right
 2880, 2885, 2890, 2895, 3351, 3352, 3353, 3354, 3355, 3450, 3465, 3480, 3495, 3510, 3955, 3956
 3957, 3958
*Nset, nset=right_lower_datum
  3,  4, 87
*Elset, elset=right_lower_datum
   14,   15,   19,   20, 2856, 2857, 2861, 2862
*Nset, nset=right_upper_datum
   6,   8, 119
*Elset, elset=right_upper_datum
   64,   65,   69,   70, 2806, 2807, 2811, 2812
*Elset, elset=_left_inner_S2, generate
 3611,  3626,     1
*Elset, elset=_left_inner_S6, generate
 3256,  3331,     5
*Surface, type=ELEMENT, name=left_inner
_left_inner_S2, S2
_left_inner_S6, S6
*Elset, elset=_left_outer_S1, generate
 3675,  3690,     1
*Elset, elset=_left_outer_S4, generate
 3260,  3335,     5
*Surface, type=ELEMENT, name=left_outer
_left_outer_S1, S1
_left_outer_S4, S4
*Elset, elset=_right_inner_S2, generate
 3891,  3906,     1
*Elset, elset=_right_inner_S6, generate
 2876,  2931,     5
*Surface, type=ELEMENT, name=right_inner
_right_inner_S2, S2
_right_inner_S6, S6
*Elset, elset=_right_outer_S1, generate
 3955,  3970,     1
*Elset, elset=_right_outer_S4, generate
 2880,  2935,     5
*Surface, type=ELEMENT, name=right_outer
_right_outer_S1, S1
_right_outer_S4, S4

*solid section, elset=all, material=S355
**Properties for S355 are here:
**https://www.sciencedirect.com/science/article/pii/S0141029616301249
*material, name=S355
*elastic, type=iso
2.05E5,0.3
*step, perturbation, name=DirectLoading
*static
*boundary
left, 1,1,0.600000
left, 2,2,
right, 1,1,-0.600000
right, 2,2,
midplane_xy, 3,3,
*output, field, frequency=1, variable=preselect
*el print, elset=all, freq=1
coord, S
*node print, nset=all, freq=1
U
*end step
